Distrib/IEEETestCases/ShortCircuitCases/123Bus/ieee123_VLL_Node.Txt

PHASE-PHASE VOLTAGES BY BUS & NODE

Bus      Node    V (kV)    Angle      p.u.   Base kV

150 ....  1       4.16 /_   30.0   0.99999     4.160
   -      2       4.16 /_  -90.0   0.99999     4.160
   -      3       4.16 /_  150.0   0.99999     4.160
150r ...  1     4.3159 /_   30.0    1.0375     4.160
   -      2      4.316 /_  -90.0    1.0375     4.160
   -      3      4.316 /_  150.0    1.0375     4.160
149 ....  1     4.3159 /_   30.0    1.0375     4.160
   -      2      4.316 /_  -90.0    1.0375     4.160
   -      3      4.316 /_  150.0    1.0375     4.160
1 ......  1     4.2765 /_   29.7     1.028     4.160
   -      2      4.293 /_  -90.4     1.032     4.160
   -      3      4.278 /_  149.4    1.0284     4.160
2 ......  2     2.4844 /_ -120.3   0.59722     4.160
3 ......  3     2.4663 /_  119.6   0.59286     4.160
7 ......  1      4.248 /_   29.4    1.0211     4.160
   -      2     4.2769 /_  -90.7    1.0281     4.160
   -      3     4.2522 /_  149.0    1.0222     4.160
4 ......  3      2.465 /_  119.6   0.59254     4.160
5 ......  3     2.4631 /_  119.6    0.5921     4.160
6 ......  3     2.4615 /_  119.6    0.5917     4.160
8 ......  1     4.2292 /_   29.3    1.0166     4.160
   -      2     4.2662 /_  -90.9    1.0255     4.160
   -      3     4.2351 /_  148.7    1.0181     4.160
12 .....  2      2.476 /_ -120.7    0.5952     4.160
9 ......  1     2.4222 /_   -1.5   0.58226     4.160
13 .....  1     4.2031 /_   29.0    1.0103     4.160
   -      2     4.2504 /_  -91.2    1.0217     4.160
   -      3     4.2105 /_  148.3    1.0121     4.160
9r .....  1     2.4222 /_   -1.5   0.58226     4.160
14 .....  1     2.4181 /_   -1.5   0.58127     4.160
34 .....  3     2.4315 /_  118.9    0.5845     4.160
18 .....  1     4.1721 /_   28.8    1.0029     4.160
   -      2     4.2234 /_  -91.5    1.0152     4.160
   -      3     4.1826 /_  148.0    1.0054     4.160
11 .....  1     2.4165 /_   -1.6   0.58088     4.160
10 .....  1     2.4173 /_   -1.5   0.58108     4.160
15 .....  3     2.4306 /_  118.9   0.58427     4.160
16 .....  3     2.4282 /_  118.9    0.5837     4.160
17 .....  3     2.4295 /_  118.9   0.58401     4.160
19 .....  1     2.3813 /_   -2.4   0.57242     4.160
21 .....  1     4.1699 /_   28.8    1.0024     4.160
   -      2     4.2217 /_  -91.5    1.0148     4.160
   -      3     4.1796 /_  148.0    1.0047     4.160
20 .....  1     2.3792 /_   -2.4   0.57192     4.160
22 .....  2     2.4584 /_ -121.2   0.59096     4.160
23 .....  1     4.1683 /_   28.8     1.002     4.160
   -      2     4.2209 /_  -91.5    1.0146     4.160
   -      3     4.1771 /_  148.0    1.0041     4.160
24 .....  3      2.407 /_  118.8   0.57862     4.160
25 .....  1     4.1665 /_   28.7    1.0016     4.160
   -      2     4.2203 /_  -91.5    1.0145     4.160
   -      3      4.175 /_  148.0    1.0036     4.160
25r ....  1     4.2009 /_  -31.8    1.0098     4.160
   -      3     2.4084 /_  118.8   0.57895     4.160
26 .....  1     4.1996 /_  -31.9    1.0095     4.160
   -      3     2.4072 /_  118.8   0.57866     4.160
28 .....  1     4.1656 /_   28.7    1.0013     4.160
   -      2     4.2201 /_  -91.6    1.0144     4.160
   -      3     4.1741 /_  147.9    1.0034     4.160
27 .....  1     4.1994 /_  -31.9    1.0095     4.160
   -      3     2.4072 /_  118.8   0.57865     4.160
31 .....  3     2.4058 /_  118.8   0.57832     4.160
33 .....  1     2.4055 /_   -2.6   0.57824     4.160
29 .....  1     4.1649 /_   28.7    1.0012     4.160
   -      2     4.2197 /_  -91.6    1.0144     4.160
   -      3     4.1731 /_  147.9    1.0032     4.160
30 .....  1      4.165 /_   28.7    1.0012     4.160
   -      2     4.2194 /_  -91.6    1.0143     4.160
   -      3     4.1723 /_  147.9     1.003     4.160
250 ....  1      4.165 /_   28.7    1.0012     4.160
   -      2     4.2194 /_  -91.6    1.0143     4.160
   -      3     4.1723 /_  147.9     1.003     4.160
32 .....  3     2.4048 /_  118.8   0.57809     4.160
35 .....  1     4.1613 /_   28.7    1.0003     4.160
   -      2     4.2152 /_  -91.5    1.0133     4.160
   -      3     4.1748 /_  147.9    1.0035     4.160
36 .....  1      4.159 /_   28.7   0.99976     4.160
   -      2     2.4547 /_ -121.3   0.59006     4.160
40 .....  1     4.1558 /_   28.7     0.999     4.160
   -      2     4.2106 /_  -91.6    1.0122     4.160
   -      3     4.1693 /_  147.9    1.0022     4.160
37 .....  1     2.3736 /_   -2.5   0.57058     4.160
38 .....  2     2.4531 /_ -121.3   0.58968     4.160
39 .....  2     2.4521 /_ -121.3   0.58944     4.160
41 .....  3     2.4096 /_  118.7   0.57922     4.160
42 .....  1     4.1504 /_   28.6   0.99769     4.160
   -      2      4.206 /_  -91.6    1.0111     4.160
   -      3     4.1642 /_  147.8     1.001     4.160
43 .....  2     2.4469 /_ -121.4   0.58819     4.160
44 .....  1     4.1465 /_   28.6   0.99675     4.160
   -      2     4.2028 /_  -91.6    1.0103     4.160
   -      3     4.1603 /_  147.8    1.0001     4.160
45 .....  1     2.3666 /_   -2.6   0.56889     4.160
47 .....  1     4.1422 /_   28.6   0.99572     4.160
   -      2     4.1988 /_  -91.7    1.0093     4.160
   -      3     4.1556 /_  147.8   0.99894     4.160
46 .....  1     2.3656 /_   -2.6   0.56865     4.160
48 .....  1     4.1411 /_   28.6   0.99545     4.160
   -      2     4.1978 /_  -91.7    1.0091     4.160
   -      3     4.1545 /_  147.8   0.99867     4.160
49 .....  1     4.1406 /_   28.6   0.99533     4.160
   -      2     4.1972 /_  -91.7    1.0089     4.160
   -      3     4.1539 /_  147.8   0.99853     4.160
50 .....  1     4.1402 /_   28.6   0.99523     4.160
   -      2      4.197 /_  -91.7    1.0089     4.160
   -      3     4.1531 /_  147.8   0.99835     4.160
51 .....  1     4.1399 /_   28.6   0.99516     4.160
   -      2      4.197 /_  -91.7    1.0089     4.160
   -      3      4.153 /_  147.7   0.99832     4.160
151 ....  1     4.1399 /_   28.6   0.99516     4.160
   -      2      4.197 /_  -91.7    1.0089     4.160
   -      3      4.153 /_  147.7   0.99832     4.160
52 .....  1     4.1847 /_   28.8    1.0059     4.160
   -      2     4.2407 /_  -91.5    1.0194     4.160
   -      3     4.1946 /_  148.0    1.0083     4.160
53 .....  1      4.176 /_   28.7    1.0039     4.160
   -      2     4.2358 /_  -91.7    1.0182     4.160
   -      3     4.1869 /_  147.8    1.0065     4.160
54 .....  1     4.1709 /_   28.6    1.0026     4.160
   -      2     4.2328 /_  -91.7    1.0175     4.160
   -      3     4.1822 /_  147.7    1.0053     4.160
55 .....  1     4.1705 /_   28.6    1.0025     4.160
   -      2     4.2325 /_  -91.7    1.0174     4.160
   -      3      4.182 /_  147.7    1.0053     4.160
57 .....  1     4.1572 /_   28.3   0.99932     4.160
   -      2     4.2215 /_  -91.9    1.0148     4.160
   -      3     4.1717 /_  147.4    1.0028     4.160
56 .....  1     4.1703 /_   28.6    1.0025     4.160
   -      2     4.2322 /_  -91.7    1.0173     4.160
   -      3      4.182 /_  147.7    1.0053     4.160
58 .....  2     2.4558 /_ -121.6   0.59033     4.160
60 .....  1     4.1286 /_   27.8   0.99246     4.160
   -      2     4.1993 /_  -92.4    1.0094     4.160
   -      3     4.1494 /_  146.9   0.99746     4.160
59 .....  2      2.455 /_ -121.6   0.59015     4.160
61 .....  1     4.1286 /_   27.8   0.99246     4.160
   -      2     4.1993 /_  -92.4    1.0094     4.160
   -      3     4.1494 /_  146.9   0.99746     4.160
62 .....  1     4.1243 /_   27.8   0.99141     4.160
   -      2     4.1934 /_  -92.4     1.008     4.160
   -      3     4.1431 /_  146.9   0.99594     4.160
63 .....  1     4.1212 /_   27.8   0.99068     4.160
   -      2       4.19 /_  -92.4    1.0072     4.160
   -      3     4.1393 /_  146.9   0.99503     4.160
64 .....  1     4.1164 /_   27.8   0.98951     4.160
   -      2     4.1829 /_  -92.4    1.0055     4.160
   -      3      4.133 /_  146.9   0.99351     4.160
65 .....  1     4.1131 /_   27.9   0.98874     4.160
   -      2      4.177 /_  -92.4    1.0041     4.160
   -      3     4.1254 /_  146.9   0.99167     4.160
66 .....  1     4.1131 /_   27.9   0.98871     4.160
   -      2      4.175 /_  -92.5    1.0036     4.160
   -      3     4.1231 /_  147.0   0.99114     4.160
67 .....  1     4.2999 /_   27.0    1.0336     4.160
   -      2     4.3234 /_  -92.4    1.0393     4.160
   -      3     4.3505 /_  147.1    1.0458     4.160
68 .....  1     2.4993 /_   -3.9   0.60079     4.160
72 .....  1     4.2992 /_   26.9    1.0335     4.160
   -      2     4.3215 /_  -92.5    1.0388     4.160
   -      3     4.3502 /_  147.0    1.0457     4.160
97 .....  1     4.2962 /_   27.0    1.0327     4.160
   -      2     4.3207 /_  -92.4    1.0386     4.160
   -      3     4.3476 /_  147.0    1.0451     4.160
69 .....  1     2.4951 /_   -3.9   0.59977     4.160
70 .....  1      2.492 /_   -3.9   0.59905     4.160
71 .....  1     2.4903 /_   -3.9   0.59864     4.160
73 .....  3     2.4765 /_  117.5   0.59532     4.160
76 .....  1     4.2988 /_   26.8    1.0334     4.160
   -      2     4.3208 /_  -92.5    1.0386     4.160
   -      3     4.3515 /_  146.9     1.046     4.160
74 .....  3     2.4721 /_  117.5   0.59424     4.160
75 .....  3     2.4696 /_  117.5   0.59365     4.160
77 .....  1     4.3039 /_   26.8    1.0346     4.160
   -      2      4.325 /_  -92.6    1.0397     4.160
   -      3     4.3557 /_  146.8    1.0471     4.160
86 .....  1     4.2965 /_   26.7    1.0328     4.160
   -      2     4.3172 /_  -92.6    1.0378     4.160
   -      3     4.3523 /_  146.8    1.0462     4.160
78 .....  1     4.3053 /_   26.7    1.0349     4.160
   -      2     4.3262 /_  -92.6      1.04     4.160
   -      3     4.3568 /_  146.8    1.0473     4.160
79 .....  1     4.3047 /_   26.7    1.0348     4.160
   -      2     4.3262 /_  -92.6    1.0399     4.160
   -      3     4.3566 /_  146.8    1.0473     4.160
80 .....  1     4.3131 /_   26.7    1.0368     4.160
   -      2     4.3325 /_  -92.7    1.0415     4.160
   -      3     4.3623 /_  146.7    1.0486     4.160
81 .....  1     4.3161 /_   26.6    1.0375     4.160
   -      2     4.3352 /_  -92.8    1.0421     4.160
   -      3     4.3643 /_  146.7    1.0491     4.160
82 .....  1     4.3203 /_   26.6    1.0385     4.160
   -      2     4.3394 /_  -92.8    1.0431     4.160
   -      3      4.368 /_  146.7      1.05     4.160
84 .....  3      2.482 /_  117.2   0.59663     4.160
83 .....  1     4.3252 /_   26.6    1.0397     4.160
   -      2     4.3437 /_  -92.8    1.0442     4.160
   -      3     4.3719 /_  146.7    1.0509     4.160
85 .....  3      2.479 /_  117.2   0.59592     4.160
87 .....  1     4.2952 /_   26.7    1.0325     4.160
   -      2     4.3153 /_  -92.6    1.0373     4.160
   -      3     4.3526 /_  146.8    1.0463     4.160
88 .....  1     2.5005 /_   -4.1   0.60107     4.160
89 .....  1     4.2948 /_   26.6    1.0324     4.160
   -      2     4.3149 /_  -92.6    1.0372     4.160
   -      3     4.3522 /_  146.8    1.0462     4.160
90 .....  2     2.4955 /_ -122.7   0.59989     4.160
91 .....  1     4.2941 /_   26.6    1.0322     4.160
   -      2     4.3147 /_  -92.6    1.0372     4.160
   -      3     4.3518 /_  146.8    1.0461     4.160
92 .....  3     2.4891 /_  117.4   0.59835     4.160
93 .....  1     4.2933 /_   26.6    1.0321     4.160
   -      2     4.3141 /_  -92.6    1.0371     4.160
   -      3     4.3516 /_  146.8    1.0461     4.160
94 .....  1     2.4966 /_   -4.1   0.60014     4.160
95 .....  1     4.2931 /_   26.6     1.032     4.160
   -      2     4.3134 /_  -92.6    1.0369     4.160
   -      3     4.3517 /_  146.8    1.0461     4.160
96 .....  2      2.493 /_ -122.7   0.59928     4.160
98 .....  1     4.2952 /_   27.0    1.0325     4.160
   -      2     4.3197 /_  -92.4    1.0384     4.160
   -      3     4.3467 /_  147.0    1.0449     4.160
99 .....  1     4.2947 /_   27.0    1.0324     4.160
   -      2     4.3179 /_  -92.4     1.038     4.160
   -      3     4.3455 /_  147.0    1.0446     4.160
100 ....  1     4.2947 /_   27.0    1.0324     4.160
   -      2     4.3176 /_  -92.4    1.0379     4.160
   -      3     4.3448 /_  147.0    1.0444     4.160
450 ....  1     4.2947 /_   27.0    1.0324     4.160
   -      2     4.3176 /_  -92.4    1.0379     4.160
   -      3     4.3448 /_  147.0    1.0444     4.160
101 ....  3     4.3454 /_  147.0    1.0446     4.160
   -      1     4.2934 /_   27.0    1.0321     4.160
   -      2     4.3188 /_  -92.4    1.0382     4.160
102 ....  3     2.4759 /_  117.6   0.59516     4.160
105 ....  1     4.2905 /_   27.0    1.0314     4.160
   -      2     4.3174 /_  -92.4    1.0378     4.160
   -      3     4.3446 /_  147.0    1.0444     4.160
103 ....  3     2.4718 /_  117.6   0.59419     4.160
104 ....  3     2.4675 /_  117.6   0.59314     4.160
106 ....  2     2.5006 /_ -122.3   0.60111     4.160
108 ....  1     4.2876 /_   26.9    1.0307     4.160
   -      2     4.3173 /_  -92.4    1.0378     4.160
   -      3     4.3435 /_  146.9    1.0441     4.160
107 ....  2     2.4971 /_ -122.3   0.60026     4.160
109 ....  1     2.4818 /_   -4.1    0.5966     4.160
300 ....  1     4.2876 /_   26.9    1.0307     4.160
   -      2     4.3173 /_  -92.4    1.0378     4.160
   -      3     4.3435 /_  146.9    1.0441     4.160
110 ....  1     2.4771 /_   -4.2   0.59544     4.160
111 ....  1     2.4753 /_   -4.2   0.59502     4.160
112 ....  1     2.4754 /_   -4.2   0.59506     4.160
113 ....  1     2.4703 /_   -4.2   0.59383     4.160
114 ....  1     2.4693 /_   -4.2   0.59359     4.160
135 ....  1     4.1721 /_   28.8    1.0029     4.160
   -      2     4.2234 /_  -91.5    1.0152     4.160
   -      3     4.1826 /_  148.0    1.0054     4.160
152 ....  1     4.2031 /_   29.0    1.0103     4.160
   -      2     4.2504 /_  -91.2    1.0217     4.160
   -      3     4.2105 /_  148.3    1.0121     4.160
160r ...  1     4.3076 /_   27.2    1.0355     4.160
   -      2     4.3302 /_  -92.2    1.0409     4.160
   -      3     4.3565 /_  147.2    1.0472     4.160
197 ....  1     4.2962 /_   27.0    1.0327     4.160
   -      2     4.3207 /_  -92.4    1.0386     4.160
   -      3     4.3476 /_  147.0    1.0451     4.160
160 ....  1     4.1286 /_   27.8   0.99246     4.160
   -      2     4.1993 /_  -92.4    1.0094     4.160
   -      3     4.1494 /_  146.9   0.99746     4.160
61s ....  1     4.1286 /_   27.8   0.99246     4.160
   -      2     4.1993 /_  -92.4    1.0094     4.160
   -      3     4.1494 /_  146.9   0.99746     4.160
300_open  1     4.1399 /_   28.6   0.99516     4.160
   -      2      4.197 /_  -91.7    1.0089     4.160
   -      3      4.153 /_  147.7   0.99832     4.160
94_open   1     2.3829 /_   -2.6   0.57281     4.160
610 ....  1    0.47638 /_   27.8   0.99246     0.480
   -      2    0.48453 /_  -92.4    1.0094     0.480
   -      3    0.47878 /_  146.9   0.99746     0.480
